<?xml version="1.0" encoding="UTF-8"?>

<!-- generated on 2026-06-09T18:16:54.526876+05:30 by Eclipse SUMO netconvert 1.27.0
<netconvertConfiguration xmlns:xsi="http://www.w3.org/2001/XMLSchema-instance" xsi:noNamespaceSchemaLocation="http://sumo.dlr.de/xsd/netconvertConfiguration.xsd">

    <input>
        <node-files value="/Users/keshav/code/projects/saarthi/sim/networks/intersection.nod.xml"/>
        <edge-files value="/Users/keshav/code/projects/saarthi/sim/networks/intersection.edg.xml"/>
    </input>

    <output>
        <output-file value="/Users/keshav/code/projects/saarthi/sim/networks/intersection.net.xml"/>
    </output>

    <tls_building>
        <tls.default-type value="static"/>
    </tls_building>

    <junctions>
        <no-turnarounds value="true"/>
    </junctions>

    <pedestrian>
        <sidewalks.guess value="true"/>
        <crossings.guess value="true"/>
        <walkingareas value="true"/>
    </pedestrian>

</netconvertConfiguration>
-->

<net version="1.20" junctionCornerDetail="5" walkingareas="true" limitTurnSpeed="5.50" xmlns:xsi="http://www.w3.org/2001/XMLSchema-instance" xsi:noNamespaceSchemaLocation="http://sumo.dlr.de/xsd/net_file.xsd">

    <location netOffset="200.00,200.00" convBoundary="0.00,0.00,400.00,400.00" origBoundary="-200.00,-200.00,200.00,200.00" projParameter="!"/>

    <edge id=":C_0" function="internal">
        <lane id=":C_0_0" index="0" disallow="pedestrian" speed="6.51" length="4.75" shape="195.20,210.40 194.85,207.95 193.80,206.20 193.60,206.08"/>
    </edge>
    <edge id=":C_1" function="internal">
        <lane id=":C_1_0" index="0" disallow="pedestrian" speed="13.89" length="20.80" shape="195.20,210.40 195.20,189.60"/>
        <lane id=":C_1_1" index="1" disallow="pedestrian" speed="13.89" length="20.80" shape="198.40,210.40 198.40,189.60"/>
    </edge>
    <edge id=":C_3" function="internal">
        <lane id=":C_3_0" index="0" disallow="pedestrian" speed="9.26" length="5.01" shape="198.40,210.40 199.11,205.44"/>
    </edge>
    <edge id=":C_16" function="internal">
        <lane id=":C_16_0" index="0" disallow="pedestrian" speed="6.51" length="4.28" shape="193.60,206.08 192.05,205.15 189.60,204.80"/>
    </edge>
    <edge id=":C_17" function="internal">
        <lane id=":C_17_0" index="0" disallow="pedestrian" speed="9.26" length="14.34" shape="199.11,205.44 199.15,205.15 201.40,201.40 205.15,199.15 210.40,198.40"/>
    </edge>
    <edge id=":C_4" function="internal">
        <lane id=":C_4_0" index="0" disallow="pedestrian" speed="6.51" length="4.75" shape="210.40,204.80 207.95,205.15 206.20,206.20 206.08,206.40"/>
    </edge>
    <edge id=":C_5" function="internal">
        <lane id=":C_5_0" index="0" disallow="pedestrian" speed="13.89" length="20.80" shape="210.40,204.80 189.60,204.80"/>
        <lane id=":C_5_1" index="1" disallow="pedestrian" speed="13.89" length="20.80" shape="210.40,201.60 189.60,201.60"/>
    </edge>
    <edge id=":C_7" function="internal">
        <lane id=":C_7_0" index="0" disallow="pedestrian" speed="9.26" length="5.01" shape="210.40,201.60 205.44,200.89"/>
    </edge>
    <edge id=":C_18" function="internal">
        <lane id=":C_18_0" index="0" disallow="pedestrian" speed="6.51" length="4.28" shape="206.08,206.40 205.15,207.95 204.80,210.40"/>
    </edge>
    <edge id=":C_19" function="internal">
        <lane id=":C_19_0" index="0" disallow="pedestrian" speed="9.26" length="14.34" shape="205.44,200.89 205.15,200.85 201.40,198.60 199.15,194.85 198.40,189.60"/>
    </edge>
    <edge id=":C_8" function="internal">
        <lane id=":C_8_0" index="0" disallow="pedestrian" speed="6.51" length="4.75" shape="204.80,189.60 205.15,192.05 206.20,193.80 206.40,193.92"/>
    </edge>
    <edge id=":C_9" function="internal">
        <lane id=":C_9_0" index="0" disallow="pedestrian" speed="13.89" length="20.80" shape="204.80,189.60 204.80,210.40"/>
        <lane id=":C_9_1" index="1" disallow="pedestrian" speed="13.89" length="20.80" shape="201.60,189.60 201.60,210.40"/>
    </edge>
    <edge id=":C_11" function="internal">
        <lane id=":C_11_0" index="0" disallow="pedestrian" speed="9.26" length="5.01" shape="201.60,189.60 200.89,194.56"/>
    </edge>
    <edge id=":C_20" function="internal">
        <lane id=":C_20_0" index="0" disallow="pedestrian" speed="6.51" length="4.28" shape="206.40,193.92 207.95,194.85 210.40,195.20"/>
    </edge>
    <edge id=":C_21" function="internal">
        <lane id=":C_21_0" index="0" disallow="pedestrian" speed="9.26" length="14.34" shape="200.89,194.56 200.85,194.85 198.60,198.60 194.85,200.85 189.60,201.60"/>
    </edge>
    <edge id=":C_12" function="internal">
        <lane id=":C_12_0" index="0" disallow="pedestrian" speed="6.51" length="4.75" shape="189.60,195.20 192.05,194.85 193.80,193.80 193.92,193.60"/>
    </edge>
    <edge id=":C_13" function="internal">
        <lane id=":C_13_0" index="0" disallow="pedestrian" speed="13.89" length="20.80" shape="189.60,195.20 210.40,195.20"/>
        <lane id=":C_13_1" index="1" disallow="pedestrian" speed="13.89" length="20.80" shape="189.60,198.40 210.40,198.40"/>
    </edge>
    <edge id=":C_15" function="internal">
        <lane id=":C_15_0" index="0" disallow="pedestrian" speed="9.26" length="5.01" shape="189.60,198.40 194.56,199.11"/>
    </edge>
    <edge id=":C_22" function="internal">
        <lane id=":C_22_0" index="0" disallow="pedestrian" speed="6.51" length="4.28" shape="193.92,193.60 194.85,192.05 195.20,189.60"/>
    </edge>
    <edge id=":C_23" function="internal">
        <lane id=":C_23_0" index="0" disallow="pedestrian" speed="9.26" length="14.34" shape="194.56,199.11 194.85,199.15 198.60,201.40 200.85,205.15 201.60,210.40"/>
    </edge>
    <edge id=":C_c0" function="crossing" crossingEdges="N_out N_in">
        <lane id=":C_c0_0" index="0" allow="pedestrian" speed="2.78" length="12.80" width="4.00" shape="206.40,208.40 193.60,208.40" outlineShape="206.50,210.40 193.50,210.40 189.60,206.40 189.60,208.40 191.60,210.40 193.60,210.40 189.60,206.40 210.40,206.40 209.18,206.51 208.18,206.84 207.40,207.40 206.84,208.18 206.51,209.18"/>
    </edge>
    <edge id=":C_c1" function="crossing" crossingEdges="E_out E_in">
        <lane id=":C_c1_0" index="0" allow="pedestrian" speed="2.78" length="12.80" width="4.00" shape="208.40,193.60 208.40,206.40" outlineShape="210.40,193.50 210.40,206.50 206.40,210.40 208.40,210.40 210.40,208.40 210.40,206.40 206.40,210.40 206.40,189.60 206.51,190.82 206.84,191.82 207.40,192.60 208.18,193.16 209.18,193.49"/>
    </edge>
    <edge id=":C_c2" function="crossing" crossingEdges="S_out S_in">
        <lane id=":C_c2_0" index="0" allow="pedestrian" speed="2.78" length="12.80" width="4.00" shape="193.60,191.60 206.40,191.60" outlineShape="193.50,189.60 206.50,189.60 210.40,193.60 210.40,191.60 208.40,189.60 206.40,189.60 210.40,193.60 189.60,193.60 190.82,193.49 191.82,193.16 192.60,192.60 193.16,191.82 193.49,190.82"/>
    </edge>
    <edge id=":C_c3" function="crossing" crossingEdges="W_out W_in">
        <lane id=":C_c3_0" index="0" allow="pedestrian" speed="2.78" length="12.80" width="4.00" shape="191.60,206.40 191.60,193.60" outlineShape="189.60,206.50 189.60,193.50 193.60,189.60 191.60,189.60 189.60,191.60 189.60,193.60 193.60,189.60 193.60,210.40 193.49,209.18 193.16,208.18 192.60,207.40 191.82,206.84 190.82,206.51"/>
    </edge>
    <edge id=":C_w0" function="walkingarea">
        <lane id=":C_w0_0" index="0" allow="pedestrian" speed="2.78" length="3.30" width="4.00" shape="189.60,206.40 189.60,208.40 191.60,210.40 193.60,210.40 193.49,209.18 193.16,208.18 192.60,207.40 191.82,206.84 190.82,206.51"/>
    </edge>
    <edge id=":C_w1" function="walkingarea">
        <lane id=":C_w1_0" index="0" allow="pedestrian" speed="2.78" length="3.30" width="4.00" shape="206.40,210.40 208.40,210.40 210.40,208.40 210.40,206.40 209.18,206.51 208.18,206.84 207.40,207.40 206.84,208.18 206.51,209.18"/>
    </edge>
    <edge id=":C_w2" function="walkingarea">
        <lane id=":C_w2_0" index="0" allow="pedestrian" speed="2.78" length="3.30" width="4.00" shape="210.40,193.60 210.40,191.60 208.40,189.60 206.40,189.60 206.51,190.82 206.84,191.82 207.40,192.60 208.18,193.16 209.18,193.49"/>
    </edge>
    <edge id=":C_w3" function="walkingarea">
        <lane id=":C_w3_0" index="0" allow="pedestrian" speed="2.78" length="3.30" width="4.00" shape="193.60,189.60 191.60,189.60 189.60,191.60 189.60,193.60 190.82,193.49 191.82,193.16 192.60,192.60 193.16,191.82 193.49,190.82"/>
    </edge>
    <edge id=":E_w0" function="walkingarea">
        <lane id=":E_w0_0" index="0" allow="pedestrian" speed="2.78" length="14.80" width="2.00" shape="400.00,206.40 400.00,208.40 400.00,191.60 400.00,193.60"/>
    </edge>
    <edge id=":N_w0" function="walkingarea">
        <lane id=":N_w0_0" index="0" allow="pedestrian" speed="2.78" length="14.80" width="2.00" shape="193.60,400.00 191.60,400.00 208.40,400.00 206.40,400.00"/>
    </edge>
    <edge id=":S_w0" function="walkingarea">
        <lane id=":S_w0_0" index="0" allow="pedestrian" speed="2.78" length="14.80" width="2.00" shape="206.40,0.00 208.40,0.00 191.60,0.00 193.60,0.00"/>
    </edge>
    <edge id=":W_w0" function="walkingarea">
        <lane id=":W_w0_0" index="0" allow="pedestrian" speed="2.78" length="14.80" width="2.00" shape="0.00,193.60 0.00,191.60 0.00,208.40 0.00,206.40"/>
    </edge>

    <edge id="E_in" from="E" to="C" priority="2">
        <lane id="E_in_0" index="0" allow="pedestrian" speed="13.89" length="189.60" width="2.00" shape="400.00,207.40 210.40,207.40"/>
        <lane id="E_in_1" index="1" disallow="pedestrian" speed="13.89" length="189.60" shape="400.00,204.80 210.40,204.80"/>
        <lane id="E_in_2" index="2" disallow="pedestrian" speed="13.89" length="189.60" shape="400.00,201.60 210.40,201.60"/>
    </edge>
    <edge id="E_out" from="C" to="E" priority="2">
        <lane id="E_out_0" index="0" allow="pedestrian" speed="13.89" length="189.60" width="2.00" shape="210.40,192.60 400.00,192.60"/>
        <lane id="E_out_1" index="1" disallow="pedestrian" speed="13.89" length="189.60" shape="210.40,195.20 400.00,195.20"/>
        <lane id="E_out_2" index="2" disallow="pedestrian" speed="13.89" length="189.60" shape="210.40,198.40 400.00,198.40"/>
    </edge>
    <edge id="N_in" from="N" to="C" priority="2">
        <lane id="N_in_0" index="0" allow="pedestrian" speed="13.89" length="189.60" width="2.00" shape="192.60,400.00 192.60,210.40"/>
        <lane id="N_in_1" index="1" disallow="pedestrian" speed="13.89" length="189.60" shape="195.20,400.00 195.20,210.40"/>
        <lane id="N_in_2" index="2" disallow="pedestrian" speed="13.89" length="189.60" shape="198.40,400.00 198.40,210.40"/>
    </edge>
    <edge id="N_out" from="C" to="N" priority="2">
        <lane id="N_out_0" index="0" allow="pedestrian" speed="13.89" length="189.60" width="2.00" shape="207.40,210.40 207.40,400.00"/>
        <lane id="N_out_1" index="1" disallow="pedestrian" speed="13.89" length="189.60" shape="204.80,210.40 204.80,400.00"/>
        <lane id="N_out_2" index="2" disallow="pedestrian" speed="13.89" length="189.60" shape="201.60,210.40 201.60,400.00"/>
    </edge>
    <edge id="S_in" from="S" to="C" priority="2">
        <lane id="S_in_0" index="0" allow="pedestrian" speed="13.89" length="189.60" width="2.00" shape="207.40,0.00 207.40,189.60"/>
        <lane id="S_in_1" index="1" disallow="pedestrian" speed="13.89" length="189.60" shape="204.80,0.00 204.80,189.60"/>
        <lane id="S_in_2" index="2" disallow="pedestrian" speed="13.89" length="189.60" shape="201.60,0.00 201.60,189.60"/>
    </edge>
    <edge id="S_out" from="C" to="S" priority="2">
        <lane id="S_out_0" index="0" allow="pedestrian" speed="13.89" length="189.60" width="2.00" shape="192.60,189.60 192.60,0.00"/>
        <lane id="S_out_1" index="1" disallow="pedestrian" speed="13.89" length="189.60" shape="195.20,189.60 195.20,0.00"/>
        <lane id="S_out_2" index="2" disallow="pedestrian" speed="13.89" length="189.60" shape="198.40,189.60 198.40,0.00"/>
    </edge>
    <edge id="W_in" from="W" to="C" priority="2">
        <lane id="W_in_0" index="0" allow="pedestrian" speed="13.89" length="189.60" width="2.00" shape="0.00,192.60 189.60,192.60"/>
        <lane id="W_in_1" index="1" disallow="pedestrian" speed="13.89" length="189.60" shape="0.00,195.20 189.60,195.20"/>
        <lane id="W_in_2" index="2" disallow="pedestrian" speed="13.89" length="189.60" shape="0.00,198.40 189.60,198.40"/>
    </edge>
    <edge id="W_out" from="C" to="W" priority="2">
        <lane id="W_out_0" index="0" allow="pedestrian" speed="13.89" length="189.60" width="2.00" shape="189.60,207.40 0.00,207.40"/>
        <lane id="W_out_1" index="1" disallow="pedestrian" speed="13.89" length="189.60" shape="189.60,204.80 0.00,204.80"/>
        <lane id="W_out_2" index="2" disallow="pedestrian" speed="13.89" length="189.60" shape="189.60,201.60 0.00,201.60"/>
    </edge>

    <tlLogic id="C" type="static" programID="0" offset="0">
        <phase duration="37" state="gGGgrrrrgGGgrrrrrGrG"/>
        <phase duration="5"  state="gGGgrrrrgGGgrrrrrrrr"/>
        <phase duration="3"  state="yyyyrrrryyyyrrrrrrrr"/>
        <phase duration="37" state="rrrrgGGgrrrrgGGgGrGr"/>
        <phase duration="5"  state="rrrrgGGgrrrrgGGgrrrr"/>
        <phase duration="3"  state="rrrryyyyrrrryyyyrrrr"/>
    </tlLogic>

    <junction id="C" type="traffic_light" x="200.00" y="200.00" incLanes="N_in_0 N_in_1 N_in_2 E_in_0 E_in_1 E_in_2 S_in_0 S_in_1 S_in_2 W_in_0 W_in_1 W_in_2 :C_w1_0 :C_w2_0 :C_w3_0 :C_w0_0" intLanes=":C_16_0 :C_1_0 :C_1_1 :C_17_0 :C_18_0 :C_5_0 :C_5_1 :C_19_0 :C_20_0 :C_9_0 :C_9_1 :C_21_0 :C_22_0 :C_13_0 :C_13_1 :C_23_0 :C_c0_0 :C_c1_0 :C_c2_0 :C_c3_0" shape="191.60,210.40 208.40,210.40 208.62,209.29 208.90,208.90 209.29,208.62 209.79,208.46 210.40,208.40 210.40,191.60 209.29,191.38 208.90,191.10 208.62,190.71 208.46,190.21 208.40,189.60 191.60,189.60 191.38,190.71 191.10,191.10 190.71,191.38 190.21,191.54 189.60,191.60 189.60,208.40 190.71,208.62 191.10,208.90 191.38,209.29 191.54,209.79">
        <request index="0"  response="10010000000000000000" foes="10010000000001100000" cont="1"/>
        <request index="1"  response="01011001000000000000" foes="01011111100011100000" cont="0"/>
        <request index="2"  response="01011000000010000000" foes="01011111100011100000" cont="0"/>
        <request index="3"  response="00111000011010000000" foes="00111110011011100000" cont="1"/>
        <request index="4"  response="00110000011000000000" foes="00110000011000000000" cont="1"/>
        <request index="5"  response="10100000111000001111" foes="10101000111000001111" cont="0"/>
        <request index="6"  response="10100000111000001111" foes="10101000111000001111" cont="0"/>
        <request index="7"  response="01100110111000001110" foes="01100110111000001110" cont="1"/>
        <request index="8"  response="01100000000000000000" foes="01100110000000000000" cont="1"/>
        <request index="9"  response="01010000000010010000" foes="01011110000011111000" cont="0"/>
        <request index="10" response="01011000000010000000" foes="01011110000011111000" cont="0"/>
        <request index="11" response="11001000000010000110" foes="11001110000011100110" cont="1"/>
        <request index="12" response="11000000000000000110" foes="11000000000000000110" cont="1"/>
        <request index="13" response="10100000111100001110" foes="10100000111110001110" cont="0"/>
        <request index="14" response="10100000111100001110" foes="10100000111110001110" cont="0"/>
        <request index="15" response="10010000111001101110" foes="10010000111001101110" cont="1"/>
        <request index="16" response="00000000000000000000" foes="00001000011000011111" cont="0"/>
        <request index="17" response="00000000000000000000" foes="00000110000111111000" cont="0"/>
        <request index="18" response="00000000000000000000" foes="00000001111110000110" cont="0"/>
        <request index="19" response="00000000000000000000" foes="00001111100001100001" cont="0"/>
    </junction>
    <junction id="E" type="dead_end" x="400.00" y="200.00" incLanes="E_out_0 E_out_1 E_out_2" intLanes="" shape="400.00,200.00 400.00,191.60 400.00,200.00"/>
    <junction id="N" type="dead_end" x="200.00" y="400.00" incLanes="N_out_0 N_out_1 N_out_2" intLanes="" shape="200.00,400.00 208.40,400.00 200.00,400.00"/>
    <junction id="S" type="dead_end" x="200.00" y="0.00" incLanes="S_out_0 S_out_1 S_out_2" intLanes="" shape="200.00,0.00 191.60,0.00 200.00,0.00"/>
    <junction id="W" type="dead_end" x="0.00" y="200.00" incLanes="W_out_0 W_out_1 W_out_2" intLanes="" shape="0.00,200.00 0.00,208.40 0.00,200.00"/>

    <junction id=":C_16_0" type="internal" x="193.60" y="206.08" incLanes=":C_0_0" intLanes=":C_5_0 :C_5_1 :C_11_0 :C_c0_0 :C_c3_0"/>
    <junction id=":C_17_0" type="internal" x="199.11" y="205.44" incLanes=":C_3_0 S_in_1 S_in_2" intLanes=":C_5_0 :C_5_1 :C_7_0 :C_8_0 :C_9_0 :C_9_1 :C_13_0 :C_13_1 :C_15_0 :C_c0_0 :C_c1_0"/>
    <junction id=":C_18_0" type="internal" x="206.08" y="206.40" incLanes=":C_4_0" intLanes=":C_9_0 :C_9_1 :C_15_0 :C_c0_0 :C_c1_0"/>
    <junction id=":C_19_0" type="internal" x="205.44" y="200.89" incLanes=":C_7_0 W_in_1 W_in_2" intLanes=":C_1_0 :C_1_1 :C_3_0 :C_9_0 :C_9_1 :C_11_0 :C_12_0 :C_13_0 :C_13_1 :C_c1_0 :C_c2_0"/>
    <junction id=":C_20_0" type="internal" x="206.40" y="193.92" incLanes=":C_8_0" intLanes=":C_3_0 :C_13_0 :C_13_1 :C_c1_0 :C_c2_0"/>
    <junction id=":C_21_0" type="internal" x="200.89" y="194.56" incLanes=":C_11_0 N_in_1 N_in_2" intLanes=":C_0_0 :C_1_0 :C_1_1 :C_5_0 :C_5_1 :C_7_0 :C_13_0 :C_13_1 :C_15_0 :C_c2_0 :C_c3_0"/>
    <junction id=":C_22_0" type="internal" x="193.92" y="193.60" incLanes=":C_12_0" intLanes=":C_1_0 :C_1_1 :C_7_0 :C_c2_0 :C_c3_0"/>
    <junction id=":C_23_0" type="internal" x="194.56" y="199.11" incLanes=":C_15_0 E_in_1 E_in_2" intLanes=":C_1_0 :C_1_1 :C_3_0 :C_4_0 :C_5_0 :C_5_1 :C_9_0 :C_9_1 :C_11_0 :C_c0_0 :C_c3_0"/>

    <connection from="E_in" to="N_out" fromLane="1" toLane="1" via=":C_4_0" tl="C" linkIndex="4" dir="r" state="o"/>
    <connection from="E_in" to="W_out" fromLane="1" toLane="1" via=":C_5_0" tl="C" linkIndex="5" dir="s" state="o"/>
    <connection from="E_in" to="W_out" fromLane="2" toLane="2" via=":C_5_1" tl="C" linkIndex="6" dir="s" state="o"/>
    <connection from="E_in" to="S_out" fromLane="2" toLane="2" via=":C_7_0" tl="C" linkIndex="7" dir="l" state="o"/>
    <connection from="N_in" to="W_out" fromLane="1" toLane="1" via=":C_0_0" tl="C" linkIndex="0" dir="r" state="o"/>
    <connection from="N_in" to="S_out" fromLane="1" toLane="1" via=":C_1_0" tl="C" linkIndex="1" dir="s" state="o"/>
    <connection from="N_in" to="S_out" fromLane="2" toLane="2" via=":C_1_1" tl="C" linkIndex="2" dir="s" state="o"/>
    <connection from="N_in" to="E_out" fromLane="2" toLane="2" via=":C_3_0" tl="C" linkIndex="3" dir="l" state="o"/>
    <connection from="S_in" to="E_out" fromLane="1" toLane="1" via=":C_8_0" tl="C" linkIndex="8" dir="r" state="o"/>
    <connection from="S_in" to="N_out" fromLane="1" toLane="1" via=":C_9_0" tl="C" linkIndex="9" dir="s" state="o"/>
    <connection from="S_in" to="N_out" fromLane="2" toLane="2" via=":C_9_1" tl="C" linkIndex="10" dir="s" state="o"/>
    <connection from="S_in" to="W_out" fromLane="2" toLane="2" via=":C_11_0" tl="C" linkIndex="11" dir="l" state="o"/>
    <connection from="W_in" to="S_out" fromLane="1" toLane="1" via=":C_12_0" tl="C" linkIndex="12" dir="r" state="o"/>
    <connection from="W_in" to="E_out" fromLane="1" toLane="1" via=":C_13_0" tl="C" linkIndex="13" dir="s" state="o"/>
    <connection from="W_in" to="E_out" fromLane="2" toLane="2" via=":C_13_1" tl="C" linkIndex="14" dir="s" state="o"/>
    <connection from="W_in" to="N_out" fromLane="2" toLane="2" via=":C_15_0" tl="C" linkIndex="15" dir="l" state="o"/>

    <connection from=":C_0" to="W_out" fromLane="0" toLane="1" via=":C_16_0" dir="r" state="m"/>
    <connection from=":C_16" to="W_out" fromLane="0" toLane="1" dir="r" state="m"/>
    <connection from=":C_1" to="S_out" fromLane="0" toLane="1" dir="s" state="M"/>
    <connection from=":C_1" to="S_out" fromLane="1" toLane="2" dir="s" state="M"/>
    <connection from=":C_3" to="E_out" fromLane="0" toLane="2" via=":C_17_0" dir="l" state="m"/>
    <connection from=":C_17" to="E_out" fromLane="0" toLane="2" dir="l" state="m"/>
    <connection from=":C_4" to="N_out" fromLane="0" toLane="1" via=":C_18_0" dir="r" state="m"/>
    <connection from=":C_18" to="N_out" fromLane="0" toLane="1" dir="r" state="m"/>
    <connection from=":C_5" to="W_out" fromLane="0" toLane="1" dir="s" state="M"/>
    <connection from=":C_5" to="W_out" fromLane="1" toLane="2" dir="s" state="M"/>
    <connection from=":C_7" to="S_out" fromLane="0" toLane="2" via=":C_19_0" dir="l" state="m"/>
    <connection from=":C_19" to="S_out" fromLane="0" toLane="2" dir="l" state="m"/>
    <connection from=":C_8" to="E_out" fromLane="0" toLane="1" via=":C_20_0" dir="r" state="m"/>
    <connection from=":C_20" to="E_out" fromLane="0" toLane="1" dir="r" state="m"/>
    <connection from=":C_9" to="N_out" fromLane="0" toLane="1" dir="s" state="M"/>
    <connection from=":C_9" to="N_out" fromLane="1" toLane="2" dir="s" state="M"/>
    <connection from=":C_11" to="W_out" fromLane="0" toLane="2" via=":C_21_0" dir="l" state="m"/>
    <connection from=":C_21" to="W_out" fromLane="0" toLane="2" dir="l" state="m"/>
    <connection from=":C_12" to="S_out" fromLane="0" toLane="1" via=":C_22_0" dir="r" state="m"/>
    <connection from=":C_22" to="S_out" fromLane="0" toLane="1" dir="r" state="m"/>
    <connection from=":C_13" to="E_out" fromLane="0" toLane="1" dir="s" state="M"/>
    <connection from=":C_13" to="E_out" fromLane="1" toLane="2" dir="s" state="M"/>
    <connection from=":C_15" to="N_out" fromLane="0" toLane="2" via=":C_23_0" dir="l" state="m"/>
    <connection from=":C_23" to="N_out" fromLane="0" toLane="2" dir="l" state="m"/>

    <connection from=":C_c0" to=":C_w0" fromLane="0" toLane="0" dir="s" state="M"/>
    <connection from=":C_c1" to=":C_w1" fromLane="0" toLane="0" dir="s" state="M"/>
    <connection from=":C_c2" to=":C_w2" fromLane="0" toLane="0" dir="s" state="M"/>
    <connection from=":C_c3" to=":C_w3" fromLane="0" toLane="0" dir="s" state="M"/>
    <connection from=":C_w0" to=":C_c3" fromLane="0" toLane="0" tl="C" linkIndex="19" dir="s" state="M"/>
    <connection from=":C_w0" to="W_out" fromLane="0" toLane="0" dir="s" state="M"/>
    <connection from="N_in" to=":C_w0" fromLane="0" toLane="0" dir="s" state="M"/>
    <connection from=":C_w1" to=":C_c0" fromLane="0" toLane="0" tl="C" linkIndex="16" dir="s" state="M"/>
    <connection from=":C_w1" to="N_out" fromLane="0" toLane="0" dir="s" state="M"/>
    <connection from="E_in" to=":C_w1" fromLane="0" toLane="0" dir="s" state="M"/>
    <connection from=":C_w2" to=":C_c1" fromLane="0" toLane="0" tl="C" linkIndex="17" dir="s" state="M"/>
    <connection from=":C_w2" to="E_out" fromLane="0" toLane="0" dir="s" state="M"/>
    <connection from="S_in" to=":C_w2" fromLane="0" toLane="0" dir="s" state="M"/>
    <connection from=":C_w3" to=":C_c2" fromLane="0" toLane="0" tl="C" linkIndex="18" dir="s" state="M"/>
    <connection from=":C_w3" to="S_out" fromLane="0" toLane="0" dir="s" state="M"/>
    <connection from="W_in" to=":C_w3" fromLane="0" toLane="0" dir="s" state="M"/>
    <connection from=":E_w0" to="E_in" fromLane="0" toLane="0" dir="s" state="M"/>
    <connection from="E_out" to=":E_w0" fromLane="0" toLane="0" dir="s" state="M"/>
    <connection from=":N_w0" to="N_in" fromLane="0" toLane="0" dir="s" state="M"/>
    <connection from="N_out" to=":N_w0" fromLane="0" toLane="0" dir="s" state="M"/>
    <connection from=":S_w0" to="S_in" fromLane="0" toLane="0" dir="s" state="M"/>
    <connection from="S_out" to=":S_w0" fromLane="0" toLane="0" dir="s" state="M"/>
    <connection from=":W_w0" to="W_in" fromLane="0" toLane="0" dir="s" state="M"/>
    <connection from="W_out" to=":W_w0" fromLane="0" toLane="0" dir="s" state="M"/>
</net>
